6

C   -2.57800061   0.07220118   0.00153830
H   -2.08123635  -0.85936428  -0.02119101
H   -3.64453696   0.04818665   0.00073504
C   -1.90584678   1.23858459   0.00270511
H   -2.43387817   2.20817201   0.00126375
H   -0.81772716   1.24095467  -0.03136666
6

C   -2.57406955   0.07570384  -0.00119895
H   -2.06578987  -0.89490749  -0.01871043
H   -3.68764000   0.04763059  -0.00808794
C   -1.90729353   1.24117495   0.00441364
H   -2.42959414   2.18667389   0.02590060
H   -0.82395409   1.22595565  -0.03740409
6

C   -2.56851640   0.08010703  -0.00287812
H   -2.05056967  -0.88668614  -0.03177197
H   -3.69592060   0.04382792  -0.01670436
C   -1.91159611   1.23956516   0.00794838
H   -2.43542943   2.16436901   0.02990065
H   -0.83995860   1.21055959  -0.04183487
6

C   -2.56965596   0.07851234   0.00031301
H   -2.06211801  -0.91443092  -0.02303383
H   -3.69587054   0.05733088  -0.01869065
C   -1.91091871   1.24170251   0.00609275
H   -2.45747866   2.17394312   0.02053482
H   -0.80090471   1.20876143  -0.05513298
6

C   -2.56534454   0.08139029  -0.00268843
H   -2.06135210  -0.92021317  -0.01903618
H   -3.69014211   0.05673962  -0.01332161
C   -1.91214471   1.23738138   0.01072452
H   -2.48751269   2.19942340  -0.00454747
H   -0.81412670   1.20684970  -0.05884216
